5
Coordinates from ORCA-job orca
  C   -1.65823213142340      0.89495004193195     -0.12001146996815
  H   -0.72675681916742      1.43395734391112     -0.03387283717130
  H   -2.22974445299672      0.65990382207814      0.76526184159624
  H   -2.03490593778151      0.62044491316523     -1.09386875417048
  F   -0.20080174863094     -1.71885366908644      0.08957627571369
