5
Coordinates from ORCA-job orca
  C   -1.16161042819049      0.00417537303930     -0.04863783691650
  H   -0.44401006128036      0.81039992714174      0.00931634243997
  H   -1.86775502934741      0.07719958070829      0.76642919526852
  H   -1.68285562534983      0.03923444445253     -0.99488374425979
  F   -0.50021221883192     -1.18204308534187      0.04636356646779
