5
Coordinates from ORCA-job orca
  C   -1.65954525325941      0.89722161123452     -0.12021595916812
  H   -0.72144005381690      1.43449912067247     -0.03329412186502
  H   -2.23160949825881      0.65738006190655      0.76943420899555
  H   -2.03594708858172      0.61775918959237     -1.09826432076400
  F   -0.20189919608316     -1.71645753140590      0.08942524880160
