12
From Chemcraft
C        0.000000000     -0.596025426      0.178657859
H        0.530433945     -1.547359249      0.254847890
H       -0.716547685     -0.512181162      0.998249640
H       -0.530433945     -0.550395671     -0.774630601
O        0.945002210      0.487865214      0.254499162
H        0.466015745      1.326019061      0.216058027
C        2.572768963     -1.073951690      0.953609428
H        3.103202908     -2.025285513      1.029799458
H        3.289316648     -0.252091889      1.011116076
H        1.856221278     -0.990107425      1.773201209
O        1.873218519     -1.013773951     -0.303612835
H        1.738986915     -0.087926679     -0.544851994
