5
Coordinates from ORCA-job orca
  C   -1.80792848194140      0.00000000023730     -0.90396424086629
  H   -1.28120038588703     -0.94468737602974     -0.82830650763046
  H   -1.09638692180101      0.81611791925680     -0.84685936026244
  H   -2.51947004226098      0.08325849131150     -0.09009849758681
  H   -2.33465657710958      0.04531096622414     -1.85059259865400
