5
Coordinates from ORCA-job orca
  C   -1.15802779253897     -0.00206290645232     -0.04812128395209
  H   -0.44019869979463      0.81818179306027      0.00944904779809
  H   -1.87383252836386      0.07964923846108      0.77204752538322
  H   -1.68756611823051      0.04158183183139     -1.00170295031654
  F   -0.49681822407203     -1.18838371690044      0.04691518408731
