5
Coordinates from ORCA-job orca
  C   -2.02777595700968      1.55764416135658     -0.17305139977257
  H   -1.08968083290369      2.08036046857462     -0.08583905639378
  H   -2.58956953331830      1.30794757434951      0.71176518394757
  H   -2.39478144101649      1.26795196592401     -1.14374506906056
  F   0.15831913424816     -2.36311977320472      0.14095313027934
